# Packages
 &PACKAGES
 useKPP=.TRUE.,
 useOBCS=.TRUE.,
 useDiagnostics=.TRUE.,
 &
