# Packages
 &PACKAGES
 useKPP=.TRUE.,
 useRBCS=.TRUE.,
 useDiagnostics=.TRUE.,
 &
